38
	Energy:      -6.6246367
C         -5.50365        0.82692        0.03335
C         -4.08882        0.68744        0.57197
H         -6.22972        0.73566        0.84724
H         -5.72110        0.04788       -0.70431
H         -5.64777        1.80179       -0.44331
H         -3.98946       -0.28392        1.07062
H         -3.91316        1.46029        1.32909
C         -3.05045        0.80698       -0.54331
H         -3.24185        0.04146       -1.30518
C         -1.62982        0.64459       -0.00013
H         -3.14744        1.78285       -1.03443
C         -0.59182        0.73091       -1.12041
H         -1.54147       -0.32373        0.50755
H         -1.42964        1.42127        0.74794
H         -0.81127       -0.02864       -1.88082
C          0.82454        0.52025       -0.58276
H         -0.65859        1.70910       -1.61157
H          0.87824       -0.44414       -0.06311
H          1.05922        1.29794        0.15407
C          1.85845        0.55001       -1.70970
H          1.83215        1.52594       -2.20954
C          3.26731        0.28079       -1.17820
H          1.60118       -0.20581       -2.46186
C          4.29467        0.25530       -2.31108
H          3.54035        1.05360       -0.44946
H          3.28170       -0.68063       -0.65051
H          4.30284        1.22525       -2.82292
C          5.69544       -0.06074       -1.78405
H          4.00428       -0.49921       -3.05237
C          6.71735       -0.11712       -2.91926
H          5.68078       -1.02247       -1.25676
H          5.99539        0.70239       -1.05561
H          6.41690       -0.87353       -3.65368
C          8.10711       -0.45154       -2.40131
H          6.74895        0.84673       -3.44038
H          8.11553       -1.42573       -1.90187
H          8.45241        0.30354       -1.68806
H          8.82153       -0.48886       -3.22967
