152
	Energy:     -14.5167206
C         -6.93348       -1.35219       -0.10160
C         -5.91961       -0.21939       -0.09528
H         -6.90801       -1.90662        0.84195
H         -6.73303       -2.05341       -0.91800
H         -7.94460       -0.95518       -0.23524
C         -4.49611       -0.74386        0.08957
H         -6.16670        0.48007        0.71185
H         -5.99305        0.33433       -1.03850
H         -4.42890       -1.30027        1.03240
C         -3.47923        0.39835        0.09511
H         -4.25545       -1.44621       -0.71783
H         -3.71919        1.10034        0.90300
H         -3.54642        0.95491       -0.84760
C         -2.05500       -0.12723        0.27928
H         -1.98744       -0.68343        1.22216
C         -1.03788        1.01458        0.28413
H         -1.81508       -0.82950       -0.52838
H         -1.27688        1.71659        1.09229
H         -1.10557        1.57125       -0.65847
C          0.38599        0.48812        0.46707
H          0.45416       -0.06787        1.41004
C          1.40342        1.62944        0.47057
H          0.62475       -0.21448       -0.34065
H          1.16573        2.33169        1.27890
H          1.33486        2.18600       -0.47204
C          2.82706        1.10219        0.65184
H          3.06430        0.39899       -0.15581
H          2.89628        0.54673        1.59505
C          3.84477        2.24306        0.65312
H          3.77478        2.79927       -0.28960
C          5.26832        1.71516        0.83204
H          3.60882        2.94574        1.46158
H          5.50357        1.01106        0.02458
H          5.33924        1.16061        1.77565
C          6.28629        2.85564        0.82998
H          6.21407        3.41122       -0.11295
C          7.70993        2.32722        1.00553
H          6.05267        3.55897        1.63855
H          7.94248        1.62188        0.19838
H          7.78338        1.77398        1.94972
C          8.72812        3.46732        0.99874
H          8.65269        4.02198        0.05552
C         10.15205        2.93846        1.16957
H          8.49770        4.17154        1.80745
H         10.38096        2.23148        0.36280
H         10.22911        2.38697        2.11450
C         11.17054        4.07811        1.15631
H         11.09070        4.63151        0.21270
C         12.59491        3.54871        1.32073
H         10.94441        4.78353        1.96518
H         12.81898        2.83967        0.51441
H         12.67677        2.99942        2.26654
C         13.61387        4.68771        1.29907
H         13.52845        5.23945        0.35497
C         15.03877        4.15751        1.45536
H         13.39331        5.39474        2.10806
H         15.25674        3.44605        0.64950
H         15.12654        3.61073        2.40210
C         16.05850        5.29550        1.42355
H         15.96667        5.84511        0.47881
C         17.48383        4.76400        1.57049
H         15.84462        6.00461        2.23251
H         17.69475        4.04996        0.76503
H         17.57811        4.21976        2.51807
C         18.50478        5.90049        1.52762
H         18.40650        6.44760        0.58208
C         19.93027        5.36702        1.66506
H         18.29817        6.61213        2.33624
H         20.13383        4.65050        0.85991
H         20.03075        4.82506        2.61331
C         20.95294        6.50147        1.61152
H         20.84911        7.04594        0.66505
C         22.37818        5.96531        1.74061
H         20.75343        7.21590        2.41945
H         22.57481        5.24655        0.93574
H         22.48370        5.42517        2.68937
C         23.40313        7.09721        1.67792
H         23.29515        7.63931        0.73056
C         24.82769        6.55769        1.80037
H         23.21003        7.81431        2.48504
H         25.01815        5.83691        0.99581
H         24.93682        6.01900        2.74955
C         25.85540        7.68664        1.73027
H         25.74457        8.22681        0.78213
C         27.27899        7.14329        1.84754
H         25.66802        8.40614        2.53658
H         27.46383        6.42046        1.04352
H         27.39070        6.60605        2.79724
C         28.30974        8.26905        1.77092
H         28.19638        8.80773        0.82223
C         29.73230        7.72176        1.88309
H         28.12796        8.99063        2.57665
H         29.91133        6.99655        1.07990
H         29.84676        7.18639        2.83351
C         30.76598        8.84432        1.79913
H         30.64888        9.38180        0.85020
C         32.18777        8.29338        1.90428
H         30.59065        9.56775        2.60464
H         32.35984        7.56540        1.10208
H         32.30669        7.76047        2.85553
C         33.22380        9.41305        1.81050
H         33.10054        9.94919        0.86158
C         34.64529        8.85923        1.90529
H         33.05647       10.13834        2.61605
H         34.80880        8.12822        1.10407
H         34.77144        8.32933        2.85729
C         35.68261        9.97663        1.79840
H         35.55032       10.51091        0.84963
C         37.10441        9.42111        1.87934
H         35.52487       10.70404        2.60396
H         37.25798        8.68700        1.07900
H         37.24065        8.89461        2.83182
C         38.14162       10.53712        1.75639
H         37.99786       11.06876        0.80780
C         39.56425        9.98131        1.82102
H         37.99440       11.26703        2.56168
H         39.70720        9.24409        1.02158
H         39.71277        9.45853        2.77370
C         40.59989       11.09682        1.68003
H         40.44312       11.62506        0.73159
C         42.02369       10.54199        1.72719
H         40.46342       11.82964        2.48458
H         42.15602        9.80164        0.92884
H         42.18568       10.02319        2.67985
C         43.05664       11.65768        1.56728
H         42.88636       12.18183        0.61890
C         44.48169       11.10459        1.59714
H         42.93054       12.39374        2.37056
H         44.60398       10.36122        0.80000
H         44.65713       10.58973        2.54956
C         45.51142       12.22072        1.41885
H         45.32850       12.74035        0.47035
C         46.93756       11.66950        1.43322
H         45.39462       12.96028        2.22032
H         47.05120       10.92374        0.63705
H         47.12482       11.15780        2.38510
C         47.96432       12.78602        1.23942
H         47.77144       13.30122        0.29047
C         49.39128       12.23635        1.24235
H         47.85463       13.52901        2.03873
H         49.49888       11.48940        0.44645
H         49.58685       11.72625        2.19342
C         50.41608       13.35311        1.03860
H         50.21768       13.86499        0.08897
C         51.84256       12.80483        1.03606
H         50.31021       14.09901        1.83576
H         51.95407       12.06029        0.23926
H         52.04831       12.29735        1.98571
C         52.86371       13.91217        0.83032
H         52.70495       14.41919       -0.12683
H         53.87694       13.49844        0.83162
H         52.79999       14.65789        1.62917
